
This summary file was generated by InflowWind  on 20-Jun-2023 at 14:16:40.

  WindType:   3

TurbSim wind type.  Read by InflowWind sub-module IfW_TSFFWind 
   Processed 200 time steps of 1-Hz full-field data (period of 200 seconds).
     FileName:                    TSinflow/90m_08mps_ts1_noturb.bts
     Binary file format id:         8
     Reference height (m):           175.0    
     Timestep (s):                   1.000    
     Number of timesteps:                  200
     Mean windspeed (m/s):           9.138    
     Windfile is periodic:        T
     Windfile includes tower:     F
     Time range (s):              [ 0 : 0 ]
     Y range (m):                 [ -340 : 340 ]
     Z range (m):                 [ 5 : 345 ]

This summary file was closed on 20-Jun-2023 at 14:16:40.

